final/Texas2k_series24_cases_with_dynamics/Texas2k_series24_case6_2024lowloadwithgfm/Texas2k_series24_case6_2024lowloadwithgfm.EPC
title
Texas2k_series24_case6_2024lowloadwithgfm
This is a synthetic power system model that does NOT represent the actual grid. 
It was developed at Texas A&M University and contains no CEII.
[1] A.B. Birchfield, T. Xu, K.M. Gegner, K.S. Shetye, and T.J. Overbye,
 "Grid Structural Characteristics as Validation Criteria for Synthetic Networks,"
 IEEE Transactions on Power Systems, vol. 32, no. 4, pp. 3258-3265, July 2017.
[2] J. Baek and A. B. Birchfield, “A tuning method for exciters and governors 
 in realistic synthetic grids with dynamics,” 2023 North American Power 
 Symposium (NAPS), Asheville, NC, USA, Oct. 2023, pp. 1-6.
!
comments
!
solution parameters
tap    1    tcul  enabled/disabled
phas   1    ps    enabled/disabled
area   1    area  enabled/disabled
svd    1    svd   enabled/disabled
dctap  1    dc    enabled/disabled
gcd    0    gcd   enabled/disabled
jump  0.000200    jumper threshold
toler   0.1000    newton tolerance
sbase 100.0000    system mva base
!
substation data  [ 1250]           no  name
      1  "ODESSA 2"    : 31.906736 -102.262348 0.090000  " "
      2  "PRESIDIO 2"    : 29.888046 -104.519139 0.145000  " "
      3  "O DONNELL 1"    : 32.926389 -101.647778 0.111000  " "
      4  "BIG SPRING 5"    : 32.207500 -101.388333 0.290000  " "
      5  "VAN HORN"    : 31.093480 -104.624514 0.350000  " "
      6  "IRAAN 2"    : 30.931467 -102.201433 0.014000  " "
      7  "PRESIDIO 1"    : 29.600000 -104.300000 0.116000  " "
      8  "SANDERSON"    : 30.028067 -101.970461 0.400000  " "
      9  "MONAHANS 2"    : 31.484586 -103.161046 0.280000  " "
     10  "GRANDFALLS"    : 31.169523 -103.085134 0.940000  " "
     11  "MARFA"    : 30.285296 -104.005761 0.069000  " "
     12  "GARDEN CITY"    : 31.763075 -101.501775 0.094000  " "
     13  "ODESSA 4"    : 31.725171 -102.413607 0.114000  " "
     14  "NOTREES"    : 31.799171 -102.632933 0.590000  " "
     15  "MIDLAND 4"    : 31.979427 -102.132366 2.350000  " "
     16  "BIG SPRING 1"    : 31.992500 -101.116700 0.171000  " "
     17  "O DONNELL 2"    : 32.929014 -101.578617 0.136000  " "
     18  "ODESSA 6"    : 31.969312 -102.630882 0.079000  " "
     19  "BIG SPRINGS"    : 32.039000 -101.220000 0.910000  " "
     20  "MIDLAND 2"    : 32.321673 -102.042298 0.113000  " "
     21  "COAHOMA"    : 32.879511 -101.246784 0.220000  " "
     22  "MIDLAND 3"    : 31.992384 -102.081464 0.230000  " "
     23  "ALPINE"    : 29.802094 -103.222360 0.290000  " "
     24  "FORT DAVIS"    : 31.004969 -103.759065 0.610000  " "
     25  "MCCAMEY 1"    : 31.209200 -102.241700 0.440000  " "
     26  "BIG SPRING 4"    : 31.991442 -101.302637 0.079000  " "
     27  "CRANE"    : 31.186888 -102.596253 0.230000  " "
     28  "ODESSA 5"    : 31.799158 -102.474090 2.510000  " "
     29  "FORT STOCKTON 1"    : 30.772575 -102.505808 0.380000  " "
     30  "ANDREWS"    : 32.335729 -102.697303 1.690000  " "
     31  "FORSAN"    : 32.140800 -101.398600 1.560000  " "
     32  "BIG LAKE"    : 31.272551 -101.172783 0.010000  " "
     33  "MIDLAND 5"    : 32.053604 -102.201660 0.078000  " "
     34  "OZONA"    : 30.575618 -101.331239 0.330000  " "
     35  "MONAHANS 1"    : 31.583900 -102.963300 0.132000  " "
     36  "STANTON"    : 32.489818 -101.754488 0.490000  " "
     37  "ODONNELL"    : 32.927010 -101.764414 0.410000  " "
     38  "LENORAH"    : 32.235300 -101.836700 0.188000  " "
     39  "IRAAN 3"    : 30.884700 -101.920800 0.094000  " "
     40  "BIG SPRING 6"    : 32.273182 -101.422436 0.164000  " "
     41  "ODESSA 3"    : 32.001129 -102.312423 0.530000  " "
     42  "BIG SPRING 3"    : 32.100823 -101.451385 0.400000  " "
     43  "BIG SPRING 7"    : 32.102911 -101.365434 0.430000  " "
     44  "MIDLAND 1"    : 31.517628 -101.918007 0.320000  " "
     45  "IRAAN 1"    : 30.917800 -102.086700 0.118000  " "
     46  "ODESSA 1"    : 31.840300 -102.326400 0.028000  " "
     47  "FORT STOCKTON 2"    : 30.807272 -102.355628 0.240000  " "
     48  "FORT STOCKTON 3"    : 30.747459 -102.790792 0.280000  " "
     49  "BIG SPRING 2"    : 31.936100 -101.298300 0.178000  " "
     50  "KERMIT"    : 31.696251 -103.138992 0.113000  " "
     51  "PECOS"    : 31.803547 -103.599914 3.270000  " "
     52  "SHEFFIELD"    : 30.596998 -101.784530 0.066000  " "
     53  "MCCAMEY 2"    : 31.139200 -102.225300 0.154000  " "
     54  "LAMESA"    : 32.929648 -102.133506 0.850000  " "
     55  "GOLDSMITH"    : 31.995000 -102.828333 2.180000  " "
     56  "RALLS 2"    : 33.658671 -101.531037 3.020000  " "
     57  "PARIS 3"    : 33.683869 -95.344733 0.066000  " "
     58  "SAVOY"    : 33.628143 -96.367605 0.062000  " "
     59  "HONEY GROVE"    : 33.615167 -95.900109 0.092000  " "
     60  "MEMPHIS"    : 34.857258 -100.512868 0.690000  " "
     61  "IOWA PARK"    : 33.973297 -98.721096 0.024000  " "
     62  "VERNON 2"    : 33.899813 -99.773497 1.950000  " "
     63  "PANHANDLE 2"    : 35.238333 -101.310833 0.400000  " "
     64  "CHILDRESS"    : 34.447226 -100.809848 1.180000  " "
     65  "FORESTBURG"    : 33.471617 -97.445189 0.370000  " "
     66  "SHERMAN 3"    : 33.627623 -96.767394 0.390000  " "
     67  "PANHANDLE 4"    : 35.427500 -101.253056 0.077000  " "
     68  "WICHITA FALLS 6"    : 33.943784 -98.523064 0.163000  " "
     69  "PARIS 2"    : 33.696800 -95.557700 0.240000  " "
     70  "WICHITA FALLS 4"    : 33.864515 -98.491046 3.260000  " "
     71  "WHEELER"    : 35.830763 -100.765905 0.064000  " "
     72  "DEPORT"    : 33.482646 -95.320088 0.260000  " "
     73  "WICHITA FALLS 3"    : 34.004783 -98.388757 0.260000  " "
     74  "SILVERTON"    : 34.457478 -101.287161 0.045000  " "
     75  "BONHAM"    : 33.708311 -96.240654 4.970000  " "
     76  "MATADOR"    : 33.710684 -100.384217 0.490000  " "
     77  "ARTHUR CITY"    : 33.857868 -95.649137 0.128000  " "
     78  "LEONARD"    : 33.441440 -96.179163 0.240000  " "
     79  "GORDONVILLE"    : 33.830932 -96.839764 0.172000  " "
     80  "KNOX CITY"    : 33.431837 -99.853667 7.800000  " "
     81  "WICHITA FALLS 7"    : 33.894941 -98.543670 0.970000  " "
     82  "LINDSAY"    : 33.615855 -97.310834 0.091000  " "
     83  "ECTOR"    : 33.553520 -96.282897 0.080000  " "
     84  "SUNSET"    : 33.455991 -97.751818 0.147000  " "
     85  "CLARKSVILLE"    : 33.663063 -94.997258 0.340000  " "
     86  "PANHANDLE 3"    : 35.386038 -101.578572 0.176000  " "
     87  "SADLER"    : 33.737974 -96.839543 0.800000  " "
     88  "WHITESBORO"    : 33.743893 -96.936121 1.980000  " "
     89  "SHEPPARD AFB"    : 33.969523 -98.509016 0.020000  " "
     90  "POTTSBORO"    : 33.800717 -96.725989 0.220000  " "
     91  "BELLS"    : 33.623645 -96.427874 0.560000  " "
     92  "CROSBYTON"    : 33.774479 -100.990114 0.060000  " "
     93  "ELECTRA"    : 34.131688 -99.106624 0.440000  " "
     94  "PATTONVILLE"    : 33.402250 -95.483203 0.310000  " "
     95  "HENRIETTA"    : 33.758490 -98.202251 0.151000  " "
     96  "PANHANDLE 6"    : 34.900760 -100.994549 0.070000  " "
     97  "BOWIE"    : 33.520572 -97.956120 0.450000  " "
     98  "WICHITA FALLS 1"    : 33.913300 -98.493100 0.350000  " "
     99  "WHITE DEER"    : 35.478900 -101.243900 0.153000  " "
    100  "ROXTON"    : 33.576823 -95.809701 0.330000  " "
    101  "VERNON 1"    : 34.290000 -99.364722 0.470000  " "
    102  "DENISON 2"    : 33.770785 -96.604061 0.074000  " "
    103  "SUMNER"    : 33.745236 -95.744327 1.210000  " "
    104  "GAINESVILLE"    : 33.661583 -97.176350 0.022000  " "
    105  "ASPERMONT"    : 33.183064 -100.245133 0.490000  " "
    106  "WICHITA FALLS 5"    : 33.799085 -98.509840 0.260000  " "
    107  "WINDTHORST"    : 33.512628 -98.457627 2.320000  " "
    108  "HOWE"    : 33.450768 -96.742245 0.152000  " "
    109  "ARCHER 2"    : 33.493056 -98.581944 0.250000  " "
    110  "COLLINSVILLE"    : 33.537706 -96.906575 0.670000  " "
    111  "JAYTON"    : 32.969722 -100.524167 0.049000  " "
    112  "MUENSTER 1"    : 33.733006 -97.428406 0.084000  " "
    113  "PADUCAH"    : 33.994322 -100.287247 0.270000  " "
    114  "NOCONA"    : 33.793074 -97.963802 0.095000  " "
    115  "DODD CITY"    : 33.615539 -96.072156 0.181000  " "
    116  "WICHITA FALLS 2"    : 33.862500 -98.589400 0.084000  " "
    117  "MONTAGUE"    : 33.626904 -97.687873 0.720000  " "
    118  "SPUR"    : 33.341053 -100.714732 0.420000  " "
    119  "ARCHER 1"    : 33.495278 -98.500000 0.340000  " "
    120  "ANNONA"    : 33.498221 -94.890845 0.099000  " "
    121  "SEYMOUR"    : 33.621145 -99.243765 0.128000  " "
    122  "DENISON 1"    : 33.727126 -96.470794 0.590000  " "
    123  "PANHANDLE 5"    : 35.350300 -101.540000 0.114000  " "
    124  "RALLS 1"    : 33.661111 -101.390000 0.420000  " "
    125  "SHERMAN 1"    : 33.582573 -96.617893 0.560000  " "
    126  "WHITEWRIGHT"    : 33.494577 -96.396115 0.280000  " "
    127  "SHERMAN 2"    : 33.604131 -96.550405 0.440000  " "
    128  "ROCHESTER"    : 33.322836 -99.642126 2.990000  " "
    129  "BURKBURNETT"    : 34.103273 -98.622467 0.820000  " "
    130  "MUENSTER 2"    : 33.682081 -97.382855 0.740000  " "
    131  "ARCHER CITY"    : 33.527396 -98.884782 0.220000  " "
    132  "PETROLIA"    : 34.008308 -98.259320 0.890000  " "
    133  "PARIS 1"    : 33.630800 -95.590000 0.330000  " "
    134  "BAGWELL"    : 33.801868 -95.151966 0.210000  " "
    135  "TELEPHONE"    : 33.778716 -95.996823 0.480000  " "
    136  "PANHANDLE 1"    : 35.442778 -101.372778 2.140000  " "
    137  "VAN ALSTYNE"    : 33.435660 -96.549913 0.390000  " "
    138  "TIOGA"    : 33.464643 -96.892724 0.460000  " "
    139  "VALLEY VIEW"    : 33.458028 -97.128552 0.860000  " "
    140  "MIAMI"    : 35.653889 -100.538611 0.640000  " "
    141  "TRENTON"    : 33.439125 -96.311485 0.091000  " "
    142  "HASKELL"    : 33.122685 -99.650389 3.260000  " "
    143  "SAINT JO"    : 33.741367 -97.535329 0.011000  " "
    144  "KERRVILLE"    : 30.036701 -99.163039 2.530000  " "
    145  "SWEETWATER 4"    : 32.360600 -100.338900 0.450000  " "
    146  "LEAKEY"    : 29.644470 -99.682471 0.120000  " "
    147  "HAMLIN"    : 32.857004 -100.124032 0.082000  " "
    148  "MERKEL 3"    : 32.473621 -100.032723 0.380000  " "
    149  "COLEMAN"    : 31.736902 -99.567791 0.290000  " "
    150  "SONORA"    : 30.441414 -100.560620 0.460000  " "
    151  "CAMP WOOD"    : 29.674700 -100.078588 0.061000  " "
    152  "LLANO"    : 30.653746 -98.918266 0.690000  " "
    153  "WILLOW CITY"    : 30.437069 -98.708714 0.090000  " "
    154  "ABILENE 4"    : 32.335677 -99.667488 0.148000  " "
    155  "KINGSLAND"    : 30.672818 -98.442748 0.830000  " "
    156  "ROSCOE 6"    : 32.415212 -100.573539 0.191000  " "
    157  "BLACKWELL"    : 32.198100 -100.268600 0.097000  " "
    158  "CHRISTOVAL"    : 31.085435 -100.678820 0.035000  " "
    159  "LUEDERS"    : 32.868619 -99.694492 0.290000  " "
    160  "COLORADO CITY"    : 32.314505 -100.918356 0.400000  " "
    161  "STAMFORD"    : 32.940911 -99.850964 0.310000  " "
    162  "ELDORADO"    : 30.883539 -100.595464 0.490000  " "
    163  "SAN SABA"    : 31.157093 -98.763991 0.097000  " "
    164  "ABILENE 2"    : 32.625600 -99.492800 4.580000  " "
    165  "LOMETA"    : 31.257224 -98.376742 0.710000  " "
    166  "SAN ANGELO 1"    : 31.509720 -100.322075 0.199000  " "
    167  "TUSCOLA"    : 32.274081 -99.826041 0.012000  " "
    168  "ABILENE 7"    : 32.333551 -99.927724 0.031000  " "
    169  "SNYDER 1"    : 32.720400 -100.995200 4.600000  " "
    170  "CHEROKEE"    : 30.939820 -99.079893 0.360000  " "
    171  "RICHLAND SPRINGS"    : 31.517913 -99.135467 0.154000  " "
    172  "ROSCOE 2"    : 32.469400 -100.666400 0.270000  " "
    173  "BALLINGER"    : 31.738576 -99.934162 0.086000  " "
    174  "SILVER"    : 32.050000 -100.691700 0.157000  " "
    175  "ROSCOE 5"    : 32.312200 -100.530300 0.760000  " "
    176  "ANSON"    : 32.747863 -99.905394 0.033000  " "
    177  "DEL RIO"    : 29.837220 -101.212436 3.840000  " "
    178  "HUNT"    : 30.095115 -99.628211 0.330000  " "
    179  "WINGATE"    : 32.214024 -100.057120 0.184000  " "
    180  "STERLING CITY 1"    : 31.926100 -100.928100 0.124000  " "
    181  "ROSCOE 4"    : 32.236944 -100.483300 0.600000  " "
    182  "BRADY"    : 31.176951 -99.616412 0.098000  " "
    183  "TRENT 1"    : 32.430100 -100.235652 0.440000  " "
    184  "OVALO"    : 32.120249 -99.753027 0.014000  " "
    185  "NOLAN"    : 32.287800 -100.100000 0.570000  " "
    186  "MILES"    : 31.592013 -100.192616 0.066000  " "
    187  "BRACKETTVILLE 2"    : 29.234722 -100.209167 0.360000  " "
    188  "MASON"    : 30.843122 -99.570053 0.340000  " "
    189  "BRACKETTVILLE 3"    : 29.395621 -100.439985 0.126000  " "
    190  "ABILENE 6"    : 32.362783 -99.817314 0.320000  " "
    191  "HERMLEIGH"    : 32.588600 -100.672800 0.085000  " "
    192  "MERKEL 1"    : 32.318221 -100.176986 0.240000  " "
    193  "LORAINE 1"    : 32.437500 -100.744400 0.092000  " "
    194  "ABILENE 1"    : 32.514400 -99.656400 0.082000  " "
    195  "ROCKSPRINGS"    : 29.988092 -100.286076 0.084000  " "
    196  "MERKEL 2"    : 32.311556 -100.061589 0.320000  " "
    197  "FLUVANNA 2"    : 32.947930 -101.147784 4.260000  " "
    198  "DYESS AFB"    : 32.415823 -99.906230 0.064000  " "
    199  "HAWLEY"    : 32.630473 -99.830642 1.350000  " "
    200  "BUCHANAN DAM 2"    : 30.936768 -98.467066 0.210000  " "
...
bus data  [2000]               ty  vsched   volt     angle    ar zone  vmax   vmin   date_in date_out pid L own st  latitude  longitude island    sdmon   vmax1      vmin1      dvmax subst
   1001 "ODESSA 2 0  " 115.0000 " "  0  :  1 0.967740  0.967740  12.435699    1    9 1.1000 0.9000 19400101 21991231   0 0   1 0   0.000000   0.000000     0 0    1.10000    0.90000    0.00000 1 "ODESSA 2"     1 -1 " "  0  " " 
   1002 "PRESIDIO 2 0" 115.0000 " "  0  :  1 1.025387  1.025387  40.082603    1    9 1.1000 0.9000 19400101 21991231   0 0   1 0   0.000000   0.000000     0 0    1.10000    0.90000    0.00000 2 "PRESIDIO 2"     1 -1 " "  0  " " 
   1003 "O DONNELL ~1" 115.0000 " "  0  :  1 0.993109  0.993109  28.524198    1    9 1.1000 0.9000 19400101 21991231   0 0   1 0   0.000000   0.000000     0 0    1.10000    0.90000    0.00000 3 "O DONNELL 1"     1 -1 " "  0  " " 
   1004 "O DONNELL ~2" 230.0000 " "  0  :  2 1.010000 0.994172  20.058633    1    9 1.1000 0.9000 19400101 21991231   0 0   1 0   0.000000   0.000000     0 0    1.10000    0.90000    0.00000 3 "O DONNELL 1"     1 -1 " "  0  " " 
   1005 "BIG SPRING~8" 115.0000 " "  0  :  1 0.995897  0.995897  29.058851    1    9 1.1000 0.9000 19400101 21991231   0 0   1 0   0.000000   0.000000     0 0    1.10000    0.90000    0.00000 4 "BIG SPRING 5"     1 -1 " "  0  " " 
   1006 "BIG SPRING~9"  13.8000 " "  0  :  2 1.000000 1.000000  30.139193    1    9 1.1000 0.9000 19400101 21991231   0 0   1 0   0.000000   0.000000     0 0    1.10000    0.90000    0.00000 4 "BIG SPRING 5"     1 -1 " "  0  " " 
   1007 "VAN HORN 0  " 115.0000 " "  0  :  2 1.030000 1.030070  45.060270    1    9 1.1000 0.9000 19400101 21991231   0 0   1 0   0.000000   0.000000     0 0    1.10000    0.90000    0.00000 5 "VAN HORN"     1 -1 " "  0  " " 
   1008 "IRAAN 2 0   " 115.0000 " "  0  :  1 0.989990  0.989990  31.145722    1    9 1.1000 0.9000 19400101 21991231   0 0   1 0   0.000000   0.000000     0 0    1.10000    0.90000    0.00000 6 "IRAAN 2"     1 -1 " "  0  " " 
   1009 "IRAAN 2 1   "  13.8000 " "  0  :  2 1.000000 1.000000  34.514214    1    9 1.1000 0.9000 19400101 21991231   0 0   1 0   0.000000   0.000000     0 0    1.10000    0.90000    0.00000 6 "IRAAN 2"     1 -1 " "  0  " " 
   1010 "PRESIDIO 1 0" 115.0000 " "  0  :  1 1.030000 1.030000  40.056020    1    9 1.1000 0.9000 19400101 21991231   0 0   1 0   0.000000   0.000000     0 0    1.10000    0.90000    0.00000 7 "PRESIDIO 1"     1 -1 " "  0  " " 
   1011 "PRESIDIO 1 1"  22.0000 " "  0  :  2 1.000000 1.030218  41.808982    1    9 1.1000 0.9000 19400101 21991231   0 0   1 0   0.000000   0.000000     0 0    1.10000    0.90000    0.00000 7 "PRESIDIO 1"     1 -1 " "  0  " " 
   1012 "SANDERSON 0 " 115.0000 " "  0  :  1 1.030000 0.954473  15.366317    1    9 1.1000 0.9000 19400101 21991231   0 0   1 0   0.000000   0.000000     0 0    1.10000    0.90000    0.00000 8 "SANDERSON"     1 -1 " "  0  " " 
   1013 "MONAHANS 2 0" 115.0000 " "  0  :  1 0.991471  0.991471  28.489971    1    9 1.1000 0.9000 19400101 21991231   0 0   1 0   0.000000   0.000000     0 0    1.10000    0.90000    0.00000 9 "MONAHANS 2"     1 -1 " "  0  " " 
   1014 "GRANDFALLS 0" 115.0000 " "  0  :  1 0.991334  0.991334  30.215476    1    9 1.1000 0.9000 19400101 21991231   0 0   1 0   0.000000   0.000000     0 0    1.10000    0.90000    0.00000 10 "GRANDFALLS"     1 -1 " "  0  " " 
   1015 "MARFA 0     " 115.0000 " "  0  :  1 1.030466  1.030466  41.323641    1    9 1.1000 0.9000 19400101 21991231   0 0   1 0   0.000000   0.000000     0 0    1.10000    0.90000    0.00000 11 "MARFA"     1 -1 " "  0  " " 
   1016 "GARDEN CIT~1" 115.0000 " "  0  :  2 1.000000 1.000000  35.044920    1    9 1.1000 0.9000 19400101 21991231   0 0   1 0   0.000000   0.000000     0 0    1.10000    0.90000    0.00000 12 "GARDEN CITY"     1 -1 " "  0  " " 
   1017 "ODESSA 4 0  " 115.0000 " "  0  :  1 0.976764  0.976764  18.415323    1    9 1.1000 0.9000 19400101 21991231   0 0   1 0   0.000000   0.000000     0 0    1.10000    0.90000    0.00000 13 "ODESSA 4"     1 -1 " "  0  " " 
   1018 "NOTREES 0   " 115.0000 " "  0  :  1 0.987510  0.987510  19.826156    1    9 1.1000 0.9000 19400101 21991231   0 0   1 0   0.000000   0.000000     0 0    1.10000    0.90000    0.00000 14 "NOTREES"     1 -1 " "  0  " " 
   1019 "MIDLAND 4 0 " 115.0000 " "  0  :  1 1.030000 0.981052  15.089130    1    9 1.1000 0.9000 19400101 21991231   0 0   1 0   0.000000   0.000000     0 0    1.10000    0.90000    0.00000 15 "MIDLAND 4"     1 -1 " "  0  " " 
   1020 "BIG SPRING~1" 115.0000 " "  0  :  1 1.030000 0.991209  23.859877    1    9 1.1000 0.9000 19400101 21991231   0 0   1 0   0.000000   0.000000     0 0    1.10000    0.90000    0.00000 16 "BIG SPRING 1"     1 -1 " "  0  " " 
   1021 "BIG SPRING~2"  13.8000 " "  0  :  2 1.000000 1.000000  27.220706    1    9 1.1000 0.9000 19400101 21991231   0 0   1 0   0.000000   0.000000     0 0    1.10000    0.90000    0.00000 16 "BIG SPRING 1"     1 -1 " "  0  " " 
   1022 "O DONNELL ~3" 115.0000 " "  0  :  2 1.000000 0.999155  29.758880    1    9 1.1000 0.9000 19400101 21991231   0 0   1 0   0.000000   0.000000     0 0    1.10000    0.90000    0.00000 17 "O DONNELL 2"     1 -1 " "  0  " " 
   1023 "O DONNELL ~4"  13.8000 " "  0  :  2 1.010000 1.010000  38.237460    1    9 1.1000 0.9000 19400101 21991231   0 0   1 0   0.000000   0.000000     0 0    1.10000    0.90000    0.00000 17 "O DONNELL 2"     1 -1 " "  0  " " 
   1024 "ODESSA 6 0  " 115.0000 " "  0  :  1 0.991354  0.991354  21.003575    1    9 1.1000 0.9000 19400101 21991231   0 0   1 0   0.000000   0.000000     0 0    1.10000    0.90000    0.00000 18 "ODESSA 6"     1 -1 " "  0  " " 
   1025 "BIG SPRIN~14" 115.0000 " "  0  :  1 0.992785  0.992785  25.440787    1    9 1.1000 0.9000 19400101 21991231   0 0   1 0   0.000000   0.000000     0 0    1.10000    0.90000    0.00000 19 "BIG SPRINGS"     1 -1 " "  0  " " 
   1026 "BIG SPRIN~15"  13.8000 " "  0  :  2 1.000000 1.000000  35.165143    1    9 1.1000 0.9000 19400101 21991231   0 0   1 0   0.000000   0.000000     0 0    1.10000    0.90000    0.00000 19 "BIG SPRINGS"     1 -1 " "  0  " " 
   1027 "MIDLAND 2 0 " 115.0000 " "  0  :  2 1.030000 0.991681  18.033312    1    9 1.1000 0.9000 19400101 21991231   0 0   1 0   0.000000   0.000000     0 0    1.10000    0.90000    0.00000 20 "MIDLAND 2"     1 -1 " "  0  " " 
   1028 "COAHOMA 0   " 115.0000 " "  0  :  2 1.000000 1.000000  25.484999    1    9 1.1000 0.9000 19400101 21991231   0 0   1 0   0.000000   0.000000     0 0    1.10000    0.90000    0.00000 21 "COAHOMA"     1 -1 " "  0  " " 
   1029 "MIDLAND 3 0 " 115.0000 " "  0  :  2 1.000000 1.000000  19.024717    1    9 1.1000 0.9000 19400101 21991231   0 0   1 0   0.000000   0.000000     0 0    1.10000    0.90000    0.00000 22 "MIDLAND 3"     1 -1 " "  0  " " 
   1030 "ALPINE 0    " 115.0000 " "  0  :  2 1.000000 1.007904  36.675807    1    9 1.1000 0.9000 19400101 21991231   0 0   1 0   0.000000   0.000000     0 0    1.10000    0.90000    0.00000 23 "ALPINE"     1 -1 " "  0  " " 
   1031 "FORT DAVIS 0" 115.0000 " "  0  :  1 1.002671  1.002671  36.525938    1    9 1.1000 0.9000 19400101 21991231   0 0   1 0   0.000000   0.000000     0 0    1.10000    0.90000    0.00000 24 "FORT DAVIS"     1 -1 " "  0  " " 
   1032 "MCCAMEY 1 0 " 115.0000 " "  0  :  2 1.000000 0.968983  29.324284    1    9 1.1000 0.9000 19400101 21991231   0 0   1 0   0.000000   0.000000     0 0    1.10000    0.90000    0.00000 25 "MCCAMEY 1"     1 -1 " "  0  " " 
   1033 "MCCAMEY 1 1 " 230.0000 " "  0  :  2 1.030000 0.972658  25.720778    1    9 1.1000 0.9000 19400101 21991231   0 0   1 0   0.000000   0.000000     0 0    1.10000    0.90000    0.00000 25 "MCCAMEY 1"     1 -1 " "  0  " " 
   1034 "BIG SPRING~6" 115.0000 " "  0  :  1 0.999041  0.999041  31.647355    1    9 1.1000 0.9000 19400101 21991231   0 0   1 0   0.000000   0.000000     0 0    1.10000    0.90000    0.00000 26 "BIG SPRING 4"     1 -1 " "  0  " " 
   1035 "BIG SPRING~7"  13.8000 " "  0  :  2 1.000000 1.000000  34.939151    1    9 1.1000 0.9000 19400101 21991231   0 0   1 0   0.000000   0.000000     0 0    1.10000    0.90000    0.00000 26 "BIG SPRING 4"     1 -1 " "  0  " " 
   1036 "CRANE 0     " 115.0000 " "  0  :  2 1.000000 0.982599  33.529035    1    9 1.1000 0.9000 19400101 21991231   0 0   1 0   0.000000   0.000000     0 0    1.10000    0.90000    0.00000 27 "CRANE"     1 -1 " "  0  " " 
   1037 "ODESSA 5 0  " 115.0000 " "  0  :  2 1.000000 0.972162  16.363223    1    9 1.1000 0.9000 19400101 21991231   0 0   1 0   0.000000   0.000000     0 0    1.10000    0.90000    0.00000 28 "ODESSA 5"     1 -1 " "  0  " " 
   1038 "FORT STOCK~1" 115.0000 " "  0  :  1 0.994021  0.994021  34.315071    1    9 1.1000 0.9000 19400101 21991231   0 0   1 0   0.000000   0.000000     0 0    1.10000    0.90000    0.00000 29 "FORT STOCKTON 1"     1 -1 " "  0  " " 
   1039 "FORT STOCK~2"  22.0000 " "  0  :  2 1.000000 1.000000  39.790493    1    9 1.1000 0.9000 19400101 21991231   0 0   1 0   0.000000   0.000000     0 0    1.10000    0.90000    0.00000 29 "FORT STOCKTON 1"     1 -1 " "  0  " " 
   1040 "ANDREWS 0   " 115.0000 " "  0  :  2 1.000000 1.000000  23.719633    1    9 1.1000 0.9000 19400101 21991231   0 0   1 0   0.000000   0.000000     0 0    1.10000    0.90000    0.00000 30 "ANDREWS"     1 -1 " "  0  " " 
   1041 "FORSAN 0    " 115.0000 " "  0  :  1 1.001168  1.001168  30.701619    1    9 1.1000 0.9000 19400101 21991231   0 0   1 0   0.000000   0.000000     0 0    1.10000    0.90000    0.00000 31 "FORSAN"     1 -1 " "  0  " " 
   1042 "FORSAN 1    "  13.8000 " "  0  :  2 1.000000 1.001168  30.701619    1    9 1.1000 0.9000 19400101 21991231   0 0   1 0   0.000000   0.000000     0 0    1.10000    0.90000    0.00000 31 "FORSAN"     1 -1 " "  0  " " 
   1043 "FORSAN 2    "  13.8000 " "  0  :  2 1.000000 1.000000  33.946100    1    9 1.1000 0.9000 19400101 21991231   0 0   1 0   0.000000   0.000000     0 0    1.10000    0.90000    0.00000 31 "FORSAN"     1 -1 " "  0  " " 
   1044 "BIG LAKE 0  " 115.0000 " "  0  :  2 1.000000 1.000000  14.102308    1    9 1.1000 0.9000 19400101 21991231   0 0   1 0   0.000000   0.000000     0 0    1.10000    0.90000    0.00000 32 "BIG LAKE"     1 -1 " "  0  " " 
   1045 "MIDLAND 5 0 " 115.0000 " "  0  :  1 0.964728  0.964728  13.590683    1    9 1.1000 0.9000 19400101 21991231   0 0   1 0   0.000000   0.000000     0 0    1.10000    0.90000    0.00000 33 "MIDLAND 5"     1 -1 " "  0  " " 
   1046 "OZONA 0     " 115.0000 " "  0  :  2 1.000000 1.000000  25.817813    1    9 1.1000 0.9000 19400101 21991231   0 0   1 0   0.000000   0.000000     0 0    1.10000    0.90000    0.00000 34 "OZONA"     1 -1 " "  0  " " 
   1047 "MONAHANS 1 0" 115.0000 " "  0  :  1 0.990930  0.990930  24.573632    1    9 1.1000 0.9000 19400101 21991231   0 0   1 0   0.000000   0.000000     0 0    1.10000    0.90000    0.00000 35 "MONAHANS 1"     1 -1 " "  0  " " 
   1048 "MONAHANS 1 1"  18.0000 " "  0  :  2 1.000000 0.990930  24.573632    1    9 1.1000 0.9000 19400101 21991231   0 0   1 0   0.000000   0.000000     0 0    1.10000    0.90000    0.00000 35 "MONAHANS 1"     1 -1 " "  0  " " 
   1049 "MONAHANS 1 2"  18.0000 " "  0  :  2 1.000000 0.990930  24.573632    1    9 1.1000 0.9000 19400101 21991231   0 0   1 0   0.000000   0.000000     0 0    1.10000    0.90000    0.00000 35 "MONAHANS 1"     1 -1 " "  0  " " 
   1050 "MONAHANS 1 3"  18.0000 " "  0  :  2 1.000000 1.000000  25.404002    1    9 1.1000 0.9000 19400101 21991231   0 0   1 0   0.000000   0.000000     0 0    1.10000    0.90000    0.00000 35 "MONAHANS 1"     1 -1 " "  0  " " 
   1051 "MONAHANS 1 4"  18.0000 " "  0  :  2 1.000000 1.000000  26.015827    1    9 1.1000 0.9000 19400101 21991231   0 0   1 0   0.000000   0.000000     0 0    1.10000    0.90000    0.00000 35 "MONAHANS 1"     1 -1 " "  0  " " 
   1052 "MONAHANS 1 5"  18.0000 " "  0  :  2 1.000000 1.000000  25.254612    1    9 1.1000 0.9000 19400101 21991231   0 0   1 0   0.000000   0.000000     0 0    1.10000    0.90000    0.00000 35 "MONAHANS 1"     1 -1 " "  0  " " 
   1053 "MONAHANS 1 6" 230.0000 " "  0  :  2 1.000000 0.984102  22.271393    1    9 1.1000 0.9000 19400101 21991231   0 0   1 0   0.000000   0.000000     0 0    1.10000    0.90000    0.00000 35 "MONAHANS 1"     1 -1 " "  0  " " 
   1054 "STANTON 0   " 115.0000 " "  0  :  1 0.995312  0.995312  24.646785    1    9 1.1000 0.9000 19400101 21991231   0 0   1 0   0.000000   0.000000     0 0    1.10000    0.90000    0.00000 36 "STANTON"     1 -1 " "  0  " " 
   1055 "ODONNELL 0  " 115.0000 " "  0  :  2 1.000000 1.000000  29.405607    1    9 1.1000 0.9000 19400101 21991231   0 0   1 0   0.000000   0.000000     0 0    1.10000    0.90000    0.00000 37 "ODONNELL"     1 -1 " "  0  " " 
   1056 "LENORAH 0   " 115.0000 " "  0  :  1 1.012213  1.012213  22.728187    1    9 1.1000 0.9000 19400101 21991231   0 0   1 0   0.000000   0.000000     0 0    1.10000    0.90000    0.00000 38 "LENORAH"     1 -1 " "  0  " " 
   1057 "LENORAH 1   "  18.0000 " "  0  :  2 1.000000 1.012213  22.728187    1    9 1.1000 0.9000 19400101 21991231   0 0   1 0   0.000000   0.000000     0 0    1.10000    0.90000    0.00000 38 "LENORAH"     1 -1 " "  0  " " 
   1058 "IRAAN 3 0   " 115.0000 " "  0  :  1 0.992784  0.992784  28.863602    1    9 1.1000 0.9000 19400101 21991231   0 0   1 0   0.000000   0.000000     0 0    1.10000    0.90000    0.00000 39 "IRAAN 3"     1 -1 " "  0  " " 
   1059 "IRAAN 3 1   "  22.0000 " "  0  :  2 1.040000 0.992784  28.863602    1    9 1.1000 0.9000 19400101 21991231   0 0   1 0   0.000000   0.000000     0 0    1.10000    0.90000    0.00000 39 "IRAAN 3"     1 -1 " "  0  " " 
   1060 "IRAAN 3 2   "  22.0000 " "  0  :  2 1.040000 0.992784  28.863602    1    9 1.1000 0.9000 19400101 21991231   0 0   1 0   0.000000   0.000000     0 0    1.10000    0.90000    0.00000 39 "IRAAN 3"     1 -1 " "  0  " " 
   1061 "BIG SPRIN~10" 115.0000 " "  0  :  2 1.000000 1.000000  27.835550    1    9 1.1000 0.9000 19400101 21991231   0 0   1 0   0.000000   0.000000     0 0    1.10000    0.90000    0.00000 40 "BIG SPRING 6"     1 -1 " "  0  " " 
   1062 "BIG SPRIN~11"  13.8000 " "  0  :  2 1.010000 1.010000  30.177396    1    9 1.1000 0.9000 19400101 21991231   0 0   1 0   0.000000   0.000000     0 0    1.10000    0.90000    0.00000 40 "BIG SPRING 6"     1 -1 " "  0  " " 
   1063 "BIG SPRIN~12"  13.8000 " "  0  :  2 1.010000 1.010000  30.910665    1    9 1.1000 0.9000 19400101 21991231   0 0   1 0   0.000000   0.000000     0 0    1.10000    0.90000    0.00000 40 "BIG SPRING 6"     1 -1 " "  0  " " 
   1064 "ODESSA 3 0  " 115.0000 " "  0  :  1 0.959234  0.959234  11.633721    1    9 1.1000 0.9000 19400101 21991231   0 0   1 0   0.000000   0.000000     0 0    1.10000    0.90000    0.00000 41 "ODESSA 3"     1 -1 " "  0  " " 
   1065 "BIG SPRING~4" 115.0000 " "  0  :  1 1.002529  1.002529  30.700140    1    9 1.1000 0.9000 19400101 21991231   0 0   1 0   0.000000   0.000000     0 0    1.10000    0.90000    0.00000 42 "BIG SPRING 3"     1 -1 " "  0  " " 
   1066 "BIG SPRING~5"  13.8000 " "  0  :  2 1.000000 1.000000  38.242623    1    9 1.1000 0.9000 19400101 21991231   0 0   1 0   0.000000   0.000000     0 0    1.10000    0.90000    0.00000 42 "BIG SPRING 3"     1 -1 " "  0  " " 
   1067 "BIG SPRIN~13" 115.0000 " "  0  :  1 0.998894  0.998894  30.264908    1    9 1.1000 0.9000 19400101 21991231   0 0   1 0   0.000000   0.000000     0 0    1.10000    0.90000    0.00000 43 "BIG SPRING 7"     1 -1 " "  0  " " 
   1068 "MIDLAND 1 0 " 115.0000 " "  0  :  1 0.973185  0.973185  31.319060    1    9 1.1000 0.9000 19400101 21991231   0 0   1 0   0.000000   0.000000     0 0    1.10000    0.90000    0.00000 44 "MIDLAND 1"     1 -1 " "  0  " " 
   1069 "IRAAN 1 0   " 115.0000 " "  0  :  1 0.997120  0.997120  31.714466    1    9 1.1000 0.9000 19400101 21991231   0 0   1 0   0.000000   0.000000     0 0    1.10000    0.90000    0.00000 45 "IRAAN 1"     1 -1 " "  0  " " 
   1070 "IRAAN 1 1   "  13.8000 " "  0  :  2 1.040000 1.020728  36.406250    1    9 1.1000 0.9000 19400101 21991231   0 0   1 0   0.000000   0.000000     0 0    1.10000    0.90000    0.00000 45 "IRAAN 1"     1 -1 " "  0  " " 
   1071 "ODESSA 1 0  " 115.0000 " "  0  :  1 0.975992  0.975992  13.275124    1    9 1.1000 0.9000 19400101 21991231   0 0   1 0   0.000000   0.000000     0 0    1.10000    0.90000    0.00000 46 "ODESSA 1"     1 -1 " "  0  " " 
   1072 "ODESSA 1 1  "  18.0000 " "  0  :  2 1.010000 1.010000  14.729191    1    9 1.1000 0.9000 19400101 21991231   0 0   1 0   0.000000   0.000000     0 0    1.10000    0.90000    0.00000 46 "ODESSA 1"     1 -1 " "  0  " " 
   1073 "ODESSA 1 2  "  18.0000 " "  0  :  2 1.010000 1.010000  15.828630    1    9 1.1000 0.9000 19400101 21991231   0 0   1 0   0.000000   0.000000     0 0    1.10000    0.90000    0.00000 46 "ODESSA 1"     1 -1 " "  0  " " 
   1074 "ODESSA 1 3  "  18.0000 " "  0  :  2 1.010000 1.010000  15.476538    1    9 1.1000 0.9000 19400101 21991231   0 0   1 0   0.000000   0.000000     0 0    1.10000    0.90000    0.00000 46 "ODESSA 1"     1 -1 " "  0  " " 
   1075 "ODESSA 1 4  "  18.0000 " "  0  :  2 1.010000 1.010000  15.035188    1    9 1.1000 0.9000 19400101 21991231   0 0   1 0   0.000000   0.000000     0 0    1.10000    0.90000    0.00000 46 "ODESSA 1"     1 -1 " "  0  " " 
   1076 "ODESSA 1 5  "  18.0000 " "  0  :  2 1.010000 0.975992  13.275124    1    9 1.1000 0.9000 19400101 21991231   0 0   1 0   0.000000   0.000000     0 0    1.10000    0.90000    0.00000 46 "ODESSA 1"     1 -1 " "  0  " " 
   1077 "ODESSA 1 6  "  18.0000 " "  0  :  2 1.010000 0.975992  13.275124    1    9 1.1000 0.9000 19400101 21991231   0 0   1 0   0.000000   0.000000     0 0    1.10000    0.90000    0.00000 46 "ODESSA 1"     1 -1 " "  0  " " 
   1078 "ODESSA 1 7  "  18.0000 " "  0  :  2 1.000000 1.000000  15.401826    1    9 1.1000 0.9000 19400101 21991231   0 0   1 0   0.000000   0.000000     0 0    1.10000    0.90000    0.00000 46 "ODESSA 1"     1 -1 " "  0  " " 
   1079 "ODESSA 1 8  " 500.0000 " "  0  :  2 1.010000 0.989396  -2.392023    1    9 1.1000 0.9000 19400101 21991231   0 0   1 0   0.000000   0.000000     0 0    1.10000    0.90000    0.00000 46 "ODESSA 1"     1 -1 " "  0  " " 
   1080 "ODESSA 1 9  "  18.0000 " "  0  :  2 1.010000 1.010000  15.008439    1    9 1.1000 0.9000 19400101 21991231   0 0   1 0   0.000000   0.000000     0 0    1.10000    0.90000    0.00000 46 "ODESSA 1"     1 -1 " "  0  " " 
   1081 "ODESSA 1 10 " 230.0000 " "  0  :  2 1.030000 0.977467  20.701641    1    9 1.1000 0.9000 19400101 21991231   0 0   1 0   0.000000   0.000000     0 0    1.10000    0.90000    0.00000 46 "ODESSA 1"     1 -1 " "  0  " " 
   1082 "FORT STOCK~3" 115.0000 " "  0  :  2 1.000000 1.000000  34.573661    1    9 1.1000 0.9000 19400101 21991231   0 0   1 0   0.000000   0.000000     0 0    1.10000    0.90000    0.00000 47 "FORT STOCKTON 2"     1 -1 " "  0  " " 
   1083 "FORT STOCK~4" 115.0000 " "  0  :  2 1.000000 1.000000  37.320727    1    9 1.1000 0.9000 19400101 21991231   0 0   1 0   0.000000   0.000000     0 0    1.10000    0.90000    0.00000 48 "FORT STOCKTON 3"     1 -1 " "  0  " " 
   1084 "BIG SPRING~3" 115.0000 " "  0  :  2 1.040000 0.996571  22.160064    1    9 1.1000 0.9000 19400101 21991231   0 0   1 0   0.000000   0.000000     0 0    1.10000    0.90000    0.00000 49 "BIG SPRING 2"     1 -1 " "  0  " " 
   1085 "KERMIT 0    " 115.0000 " "  0  :  2 1.000000 1.000000  27.845178    1    9 1.1000 0.9000 19400101 21991231   0 0   1 0   0.000000   0.000000     0 0    1.10000    0.90000    0.00000 50 "KERMIT"     1 -1 " "  0  " " 
   1086 "PECOS 0     " 115.0000 " "  0  :  2 1.030000 1.012563  27.461066    1    9 1.1000 0.9000 19400101 21991231   0 0   1 0   0.000000   0.000000     0 0    1.10000    0.90000    0.00000 51 "PECOS"     1 -1 " "  0  " " 
   1087 "SHEFFIELD 0 " 115.0000 " "  0  :  1 0.992884  0.992884  23.324035    1    9 1.1000 0.9000 19400101 21991231   0 0   1 0   0.000000   0.000000     0 0    1.10000    0.90000    0.00000 52 "SHEFFIELD"     1 -1 " "  0  " " 
   1088 "MCCAMEY 2 0 " 115.0000 " "  0  :  2 1.000000 0.997342  34.792610    1    9 1.1000 0.9000 19400101 21991231   0 0   1 0   0.000000   0.000000     0 0    1.10000    0.90000    0.00000 53 "MCCAMEY 2"     1 -1 " "  0  " " 
   1089 "LAMESA 0    " 115.0000 " "  0  :  2 1.000000 1.000000  31.782815    1    9 1.1000 0.9000 19400101 21991231   0 0   1 0   0.000000   0.000000     0 0    1.10000    0.90000    0.00000 54 "LAMESA"     1 -1 " "  0  " " 
   1090 "GOLDSMITH 0 " 115.0000 " "  0  :  2 1.020000 1.004136  23.062211    1    9 1.1000 0.9000 19400101 21991231   0 0   1 0   0.000000   0.000000     0 0    1.10000    0.90000    0.00000 55 "GOLDSMITH"     1 -1 " "  0  " " 
   1091 "RALLS 2 0   " 161.0000 " "  0  :  1 0.974489  0.974489  27.192198    1    9 1.1000 0.9000 19400101 21991231   0 0   1 0   0.000000   0.000000     0 0    1.10000    0.90000    0.00000 56 "RALLS 2"     1 -1 " "  0  " " 
   2001 "PARIS 3 0   " 161.0000 " "  0  :  1 1.021906  1.021906  -30.898785    2   11 1.1000 0.9000 19400101 21991231   0 0   1 0   0.000000   0.000000     0 0    1.10000    0.90000    0.00000 57 "PARIS 3"     1 -1 " "  0  " " 
   2002 "SAVOY 0     " 500.0000 " "  0  :  1 1.028716  1.028716  -29.116277    2   11 1.1000 0.9000 19400101 21991231   0 0   1 0   0.000000   0.000000     0 0    1.10000    0.90000    0.00000 58 "SAVOY"     1 -1 " "  0  " " 
   2003 "SAVOY 1     " 161.0000 " "  0  :  1 1.026540  1.026540  -30.819553    2   11 1.1000 0.9000 19400101 21991231   0 0   1 0   0.000000   0.000000     0 0    1.10000    0.90000    0.00000 58 "SAVOY"     1 -1 " "  0  " " 
   2004 "SAVOY 2     "  13.8000 " "  0  :  2 1.020000 1.028716  -29.116277    2   11 1.1000 0.9000 19400101 21991231   0 0   1 0   0.000000   0.000000     0 0    1.10000    0.90000    0.00000 58 "SAVOY"     1 -1 " "  0  " " 
   2005 "SAVOY 3     "  13.8000 " "  0  :  2 1.020000 1.028716  -29.116277    2   11 1.1000 0.9000 19400101 21991231   0 0   1 0   0.000000   0.000000     0 0    1.10000    0.90000    0.00000 58 "SAVOY"     1 -1 " "  0  " " 
   2006 "SAVOY 4     "  13.8000 " "  0  :  2 1.020000 1.028716  -29.116277    2   11 1.1000 0.9000 19400101 21991231   0 0   1 0   0.000000   0.000000     0 0    1.10000    0.90000    0.00000 58 "SAVOY"     1 -1 " "  0  " " 
   2007 "HONEY GROV~1" 161.0000 " "  0  :  1 1.024584  1.024584  -30.007988    2   11 1.1000 0.9000 19400101 21991231   0 0   1 0   0.000000   0.000000     0 0    1.10000    0.90000    0.00000 59 "HONEY GROVE"     1 -1 " "  0  " " 
   2008 "MEMPHIS 0   " 161.0000 " "  0  :  2 1.000000 1.003425  36.209631    2   10 1.1000 0.9000 19400101 21991231   0 0   1 0   0.000000   0.000000     0 0    1.10000    0.90000    0.00000 60 "MEMPHIS"     1 -1 " "  0  " " 
   2009 "IOWA PARK 0 " 161.0000 " "  0  :  1 1.030000 0.991739  2.647576    2   11 1.1000 0.9000 19400101 21991231   0 0   1 0   0.000000   0.000000     0 0    1.10000    0.90000    0.00000 61 "IOWA PARK"     1 -1 " "  0  " " 
   2010 "VERNON 2 0  " 161.0000 " "  0  :  2 1.000000 1.000000  25.455171    2   10 1.1000 0.9000 19400101 21991231   0 0   1 0   0.000000   0.000000     0 0    1.10000    0.90000    0.00000 62 "VERNON 2"     1 -1 " "  0  " " 
   2011 "PANHANDLE ~2" 500.0000 " "  0  :  2 1.000000 1.015828  21.816990    2   10 1.1000 0.9000 19400101 21991231   0 0   1 0   0.000000   0.000000     0 0    1.10000    0.90000    0.00000 63 "PANHANDLE 2"     1 -1 " "  0  " " 
   2012 "PANHANDLE ~3" 161.0000 " "  0  :  2 1.000000 0.994021  28.662956    2   10 1.1000 0.9000 19400101 21991231   0 0   1 0   0.000000   0.000000     0 0    1.10000    0.90000    0.00000 63 "PANHANDLE 2"     1 -1 " "  0  " " 
   2013 "PANHANDLE ~4"  18.0000 " "  0  :  2 1.000000 1.004982  24.413074    2   10 1.1000 0.9000 19400101 21991231   0 0   1 0   0.000000   0.000000     0 0    1.10000    0.90000    0.00000 63 "PANHANDLE 2"     1 -1 " "  0  " " 
   2014 "CHILDRESS 0 " 161.0000 " "  0  :  1 0.996666  0.996666  35.952402    2   10 1.1000 0.9000 19400101 21991231   0 0   1 0   0.000000   0.000000     0 0    1.10000    0.90000    0.00000 64 "CHILDRESS"     1 -1 " "  0  " " 
   2015 "FORESTBURG 0" 161.0000 " "  0  :  1 0.997693  0.997693  -20.174222    2   11 1.1000 0.9000 19400101 21991231   0 0   1 0   0.000000   0.000000     0 0    1.10000    0.90000    0.00000 65 "FORESTBURG"     1 -1 " "  0  " " 
   2016 "SHERMAN 3 0 " 161.0000 " "  0  :  2 1.000000 1.015946  -35.864512    2   11 1.1000 0.9000 19400101 21991231   0 0   1 0   0.000000   0.000000     0 0    1.10000    0.90000    0.00000 66 "SHERMAN 3"     1 -1 " "  0  " " 
   2017 "PANHANDLE ~7" 500.0000 " "  0  :  1 1.030000 1.029574  16.755531    2   10 1.1000 0.9000 19400101 21991231   0 0   1 0   0.000000   0.000000     0 0    1.10000    0.90000    0.00000 67 "PANHANDLE 4"     1 -1 " "  0  " " 
   2018 "PANHANDLE ~8" 161.0000 " "  0  :  1 1.004457  1.004457  20.684444    2   10 1.1000 0.9000 19400101 21991231   0 0   1 0   0.000000   0.000000     0 0    1.10000    0.90000    0.00000 67 "PANHANDLE 4"     1 -1 " "  0  " " 
   2019 "PANHANDLE ~9"  20.0000 " "  0  :  2 1.040000 1.029574  16.755531    2   10 1.1000 0.9000 19400101 21991231   0 0   1 0   0.000000   0.000000     0 0    1.10000    0.90000    0.00000 67 "PANHANDLE 4"     1 -1 " "  0  " " 
   2020 "WICHITA F~12" 161.0000 " "  0  :  1 0.973447  0.973447  -3.377223    2   11 1.1000 0.9000 19400101 21991231   0 0   1 0   0.000000   0.000000     0 0    1.10000    0.90000    0.00000 68 "WICHITA FALLS 6"     1 -1 " "  0  " " 
   2021 "PARIS 2 0   " 500.0000 " "  0  :  1 1.034419  1.034419  -27.981431    2   11 1.1000 0.9000 19400101 21991231   0 0   1 0   0.000000   0.000000     0 0    1.10000    0.90000    0.00000 69 "PARIS 2"     1 -1 " "  0  " " 
   2022 "PARIS 2 1   " 161.0000 " "  0  :  1 1.030586  1.030586  -29.521092    2   11 1.1000 0.9000 19400101 21991231   0 0   1 0   0.000000   0.000000     0 0    1.10000    0.90000    0.00000 69 "PARIS 2"     1 -1 " "  0  " " 
   2023 "PARIS 2 2   "  13.8000 " "  0  :  2 1.020000 1.034419  -27.981431    2   11 1.1000 0.9000 19400101 21991231   0 0   1 0   0.000000   0.000000     0 0    1.10000    0.90000    0.00000 69 "PARIS 2"     1 -1 " "  0  " " 
   2024 "PARIS 2 3   "  13.8000 " "  0  :  2 1.020000 1.030175  -27.262126    2   11 1.1000 0.9000 19400101 21991231   0 0   1 0   0.000000   0.000000     0 0    1.10000    0.90000    0.00000 69 "PARIS 2"     1 -1 " "  0  " " 
   2025 "WICHITA F~10" 161.0000 " "  0  :  1 0.970717  0.970717  -3.491361    2   11 1.1000 0.9000 19400101 21991231   0 0   1 0   0.000000   0.000000     0 0    1.10000    0.90000    0.00000 70 "WICHITA FALLS 4"     1 -1 " "  0  " " 
   2026 "WHEELER 0   " 161.0000 " "  0  :  1 0.995462  0.995462  23.136820    2   10 1.1000 0.9000 19400101 21991231   0 0   1 0   0.000000   0.000000     0 0    1.10000    0.90000    0.00000 71 "WHEELER"     1 -1 " "  0  " " 
   2027 "DEPORT 0    " 161.0000 " "  0  :  1 1.023017  1.023017  -31.084191    2   11 1.1000 0.9000 19400101 21991231   0 0   1 0   0.000000   0.000000     0 0    1.10000    0.90000    0.00000 72 "DEPORT"     1 -1 " "  0  " " 
   2028 "WICHITA FA~9" 161.0000 " "  0  :  1 0.982165  0.982165  -3.812169    2   11 1.1000 0.9000 19400101 21991231   0 0   1 0   0.000000   0.000000     0 0    1.10000    0.90000    0.00000 73 "WICHITA FALLS 3"     1 -1 " "  0  " " 
   2029 "SILVERTON 0 " 161.0000 " "  0  :  2 1.000000 1.000000  37.220331    2   10 1.1000 0.9000 19400101 21991231   0 0   1 0   0.000000   0.000000     0 0    1.10000    0.90000    0.00000 74 "SILVERTON"     1 -1 " "  0  " " 
   2030 "BONHAM 0    " 161.0000 " "  0  :  1 1.010295  1.010295  -32.392530    2   11 1.1000 0.9000 19400101 21991231   0 0   1 0   0.000000   0.000000     0 0    1.10000    0.90000    0.00000 75 "BONHAM"     1 -1 " "  0  " " 
   2031 "MATADOR 0   " 161.0000 " "  0  :  1 1.000227  1.000227  26.689581    2   10 1.1000 0.9000 19400101 21991231   0 0   1 0   0.000000   0.000000     0 0    1.10000    0.90000    0.00000 76 "MATADOR"     1 -1 " "  0  " " 
   2032 "ARTHUR CIT~1" 161.0000 " "  0  :  1 1.026766  1.026766  -29.589665    2   11 1.1000 0.9000 19400101 21991231   0 0   1 0   0.000000   0.000000     0 0    1.10000    0.90000    0.00000 77 "ARTHUR CITY"     1 -1 " "  0  " " 
   2033 "LEONARD 0   " 161.0000 " "  0  :  1 1.013273  1.013273  -32.333596    2   11 1.1000 0.9000 19400101 21991231   0 0   1 0   0.000000   0.000000     0 0    1.10000    0.90000    0.00000 78 "LEONARD"     1 -1 " "  0  " " 
   2034 "GORDONVILL~1" 161.0000 " "  0  :  1 1.015771  1.015771  -35.876788    2   11 1.1000 0.9000 19400101 21991231   0 0   1 0   0.000000   0.000000     0 0    1.10000    0.90000    0.00000 79 "GORDONVILLE"     1 -1 " "  0  " " 
   2035 "KNOX CITY 0 " 161.0000 " "  0  :  2 1.000000 1.000000  32.800443    2   10 1.1000 0.9000 19400101 21991231   0 0   1 0   0.000000   0.000000     0 0    1.10000    0.90000    0.00000 80 "KNOX CITY"     1 -1 " "  0  " " 
   2036 "WICHITA F~13" 161.0000 " "  0  :  1 0.976501  0.976501  -1.446056    2   11 1.1000 0.9000 19400101 21991231   0 0   1 0   0.000000   0.000000     0 0    1.10000    0.90000    0.00000 81 "WICHITA FALLS 7"     1 -1 " "  0  " " 
   2037 "LINDSAY 0   " 161.0000 " "  0  :  1 1.005810  1.005810  -20.165161    2   11 1.1000 0.9000 19400101 21991231   0 0   1 0   0.000000   0.000000     0 0    1.10000    0.90000    0.00000 82 "LINDSAY"     1 -1 " "  0  " " 
   2038 "ECTOR 0     " 161.0000 " "  0  :  1 1.026180  1.026180  -30.604960    2   11 1.1000 0.9000 19400101 21991231   0 0   1 0   0.000000   0.000000     0 0    1.10000    0.90000    0.00000 83 "ECTOR"     1 -1 " "  0  " " 
   2039 "SUNSET 0    " 161.0000 " "  0  :  1 0.987965  0.987965  -18.822080    2   11 1.1000 0.9000 19400101 21991231   0 0   1 0   0.000000   0.000000     0 0    1.10000    0.90000    0.00000 84 "SUNSET"     1 -1 " "  0  " " 
   2040 "CLARKSVILL~1" 161.0000 " "  0  :  1 1.028489  1.028489  -30.115264    2   11 1.1000 0.9000 19400101 21991231   0 0   1 0   0.000000   0.000000     0 0    1.10000    0.90000    0.00000 85 "CLARKSVILLE"     1 -1 " "  0  " " 
   2041 "PANHANDLE ~5" 161.0000 " "  0  :  2 1.000000 1.000000  33.146388    2   10 1.1000 0.9000 19400101 21991231   0 0   1 0   0.000000   0.000000     0 0    1.10000    0.90000    0.00000 86 "PANHANDLE 3"     1 -1 " "  0  " " 
   2042 "PANHANDLE ~6"  18.0000 " "  0  :  2 1.010000 1.010000  36.098256    2   10 1.1000 0.9000 19400101 21991231   0 0   1 0   0.000000   0.000000     0 0    1.10000    0.90000    0.00000 86 "PANHANDLE 3"     1 -1 " "  0  " " 
   2043 "SADLER 0    " 161.0000 " "  0  :  1 1.015698  1.015698  -35.904864    2   11 1.1000 0.9000 19400101 21991231   0 0   1 0   0.000000   0.000000     0 0    1.10000    0.90000    0.00000 87 "SADLER"     1 -1 " "  0  " " 
   2044 "WHITESBORO 0" 161.0000 " "  0  :  1 1.003762  1.003762  -25.769974    2   11 1.1000 0.9000 19400101 21991231   0 0   1 0   0.000000   0.000000     0 0    1.10000    0.90000    0.00000 88 "WHITESBORO"     1 -1 " "  0  " " 
   2045 "SHEPPARD A~1" 161.0000 " "  0  :  1 0.974732  0.974732  -3.542033    2   11 1.1000 0.9000 19400101 21991231   0 0   1 0   0.000000   0.000000     0 0    1.10000    0.90000    0.00000 89 "SHEPPARD AFB"     1 -1 " "  0  " " 
   2046 "POTTSBORO 0 " 161.0000 " "  0  :  1 1.016272  1.016272  -35.771387    2   11 1.1000 0.9000 19400101 21991231   0 0   1 0   0.000000   0.000000     0 0    1.10000    0.90000    0.00000 90 "POTTSBORO"     1 -1 " "  0  " " 
   2047 "BELLS 0     " 161.0000 " "  0  :  1 1.024217  1.024217  -31.769530    2   11 1.1000 0.9000 19400101 21991231   0 0   1 0   0.000000   0.000000     0 0    1.10000    0.90000    0.00000 91 "BELLS"     1 -1 " "  0  " " 
   2048 "CROSBYTON 0 " 161.0000 " "  0  :  2 1.000000 1.000000  29.029311    2   10 1.1000 0.9000 19400101 21991231   0 0   1 0   0.000000   0.000000     0 0    1.10000    0.90000    0.00000 92 "CROSBYTON"     1 -1 " "  0  " " 
   2049 "ELECTRA 0   " 161.0000 " "  0  :  2 1.000000 1.000000  11.321173    2   10 1.1000 0.9000 19400101 21991231   0 0   1 0   0.000000   0.000000     0 0    1.10000    0.90000    0.00000 93 "ELECTRA"     1 -1 " "  0  " " 
   2050 "PATTONVILL~1" 161.0000 " "  0  :  1 1.017726  1.017726  -32.097191    2   11 1.1000 0.9000 19400101 21991231   0 0   1 0   0.000000   0.000000     0 0    1.10000    0.90000    0.00000 94 "PATTONVILLE"     1 -1 " "  0  " " 
   2051 "HENRIETTA 0 " 161.0000 " "  0  :  2 1.000000 1.000000  -10.422934    2   11 1.1000 0.9000 19400101 21991231   0 0   1 0   0.000000   0.000000     0 0    1.10000    0.90000    0.00000 95 "HENRIETTA"     1 -1 " "  0  " " 
   2052 "PANHANDLE~13" 161.0000 " "  0  :  1 0.992125  0.992125  31.799656    2   10 1.1000 0.9000 19400101 21991231   0 0   1 0   0.000000   0.000000     0 0    1.10000    0.90000    0.00000 96 "PANHANDLE 6"     1 -1 " "  0  " " 
   2053 "BOWIE 0     " 161.0000 " "  0  :  1 0.989790  0.989790  -21.057977    2   11 1.1000 0.9000 19400101 21991231   0 0   1 0   0.000000   0.000000     0 0    1.10000    0.90000    0.00000 97 "BOWIE"     1 -1 " "  0  " " 
   2054 "WICHITA FA~1" 500.0000 " "  0  :  1 0.975274  0.975274  -3.416697    2   11 1.1000 0.9000 19400101 21991231   0 0   1 0   0.000000   0.000000     0 0    1.10000    0.90000    0.00000 98 "WICHITA FALLS 1"     1 -1 " "  0  " " 
   2055 "WICHITA FA~2" 161.0000 " "  0  :  1 0.973275  0.973275  -2.886197    2   11 1.1000 0.9000 19400101 21991231   0 0   1 0   0.000000   0.000000     0 0    1.10000    0.90000    0.00000 98 "WICHITA FALLS 1"     1 -1 " "  0  " " 
   2056 "WICHITA FA~3"  18.0000 " "  0  :  2 0.990000 0.975274  -3.416697    2   11 1.1000 0.9000 19400101 21991231   0 0   1 0   0.000000   0.000000     0 0    1.10000    0.90000    0.00000 98 "WICHITA FALLS 1"     1 -1 " "  0  " " 
   2057 "WICHITA FA~4"  18.0000 " "  0  :  2 0.990000 0.990000  -1.573756    2   11 1.1000 0.9000 19400101 21991231   0 0   1 0   0.000000   0.000000     0 0    1.10000    0.90000    0.00000 98 "WICHITA FALLS 1"     1 -1 " "  0  " " 
   2058 "WHITE DEER 0" 161.0000 " "  0  :  1 0.999747  0.999747  31.927869    2   10 1.1000 0.9000 19400101 21991231   0 0   1 0   0.000000   0.000000     0 0    1.10000    0.90000    0.00000 99 "WHITE DEER"     1 -1 " "  0  " " 
   2059 "WHITE DEER 1"  13.8000 " "  0  :  2 1.000000 1.000000  35.401297    2   10 1.1000 0.9000 19400101 21991231   0 0   1 0   0.000000   0.000000     0 0    1.10000    0.90000    0.00000 99 "WHITE DEER"     1 -1 " "  0  " " 
   2060 "ROXTON 0    " 161.0000 " "  0  :  1 1.020466  1.020466  -31.223036    2   11 1.1000 0.9000 19400101 21991231   0 0   1 0   0.000000   0.000000     0 0    1.10000    0.90000    0.00000 100 "ROXTON"     1 -1 " "  0  " " 
   2061 "VERNON 1 0  " 161.0000 " "  0  :  1 0.999344  0.999344  16.950701    2   10 1.1000 0.9000 19400101 21991231   0 0   1 0   0.000000   0.000000     0 0    1.10000    0.90000    0.00000 101 "VERNON 1"     1 -1 " "  0  " " 
   2062 "VERNON 1 1  "  18.0000 " "  0  :  2 1.020000 1.011815  19.286157    2   10 1.1000 0.9000 19400101 21991231   0 0   1 0   0.000000   0.000000     0 0    1.10000    0.90000    0.00000 101 "VERNON 1"     1 -1 " "  0  " " 
   2063 "DENISON 2 0 " 161.0000 " "  0  :  1 1.030000 1.018781  -35.346862    2   11 1.1000 0.9000 19400101 21991231   0 0   1 0   0.000000   0.000000     0 0    1.10000    0.90000    0.00000 102 "DENISON 2"     1 -1 " "  0  " " 
   2064 "SUMNER 0    " 161.0000 " "  0  :  1 1.025132  1.025132  -30.433529    2   11 1.1000 0.9000 19400101 21991231   0 0   1 0   0.000000   0.000000     0 0    1.10000    0.90000    0.00000 103 "SUMNER"     1 -1 " "  0  " " 
   2065 "GAINESVILL~1" 161.0000 " "  0  :  2 1.030000 1.001777  -22.116287    2   11 1.1000 0.9000 19400101 21991231   0 0   1 0   0.000000   0.000000     0 0    1.10000    0.90000    0.00000 104 "GAINESVILLE"     1 -1 " "  0  " " 
   2066 "ASPERMONT 0 " 161.0000 " "  0  :  1 0.982736  0.982736  25.106047    2   10 1.1000 0.9000 19400101 21991231   0 0   1 0   0.000000   0.000000     0 0    1.10000    0.90000    0.00000 105 "ASPERMONT"     1 -1 " "  0  " " 
   2067 "WICHITA F~11" 161.0000 " "  0  :  1 0.970516  0.970516  -3.909705    2   11 1.1000 0.9000 19400101 21991231   0 0   1 0   0.000000   0.000000     0 0    1.10000    0.90000    0.00000 106 "WICHITA FALLS 5"     1 -1 " "  0  " " 
   2068 "WINDTHORST 0" 161.0000 " "  0  :  1 0.986806  0.986806  -3.238815    2   11 1.1000 0.9000 19400101 21991231   0 0   1 0   0.000000   0.000000     0 0    1.10000    0.90000    0.00000 107 "WINDTHORST"     1 -1 " "  0  " " 
   2069 "HOWE 0      " 161.0000 " "  0  :  1 1.030000 1.030000  -34.249771    2   11 1.1000 0.9000 19400101 21991231   0 0   1 0   0.000000   0.000000     0 0    1.10000    0.90000    0.00000 108 "HOWE"     1 -1 " "  0  " " 
   2070 "ARCHER 2 0  " 161.0000 " "  0  :  1 0.991074  0.991074  -3.298022    2   11 1.1000 0.9000 19400101 21991231   0 0   1 0   0.000000   0.000000     0 0    1.10000    0.90000    0.00000 109 "ARCHER 2"     1 -1 " "  0  " " 
   2071 "ARCHER 2 1  "  18.0000 " "  0  :  2 1.000000 1.000000  0.404471    2   11 1.1000 0.9000 19400101 21991231   0 0   1 0   0.000000   0.000000     0 0    1.10000    0.90000    0.00000 109 "ARCHER 2"     1 -1 " "  0  " " 
   2072 "COLLINSVIL~1" 161.0000 " "  0  :  1 1.024873  1.024873  -32.569053    2   11 1.1000 0.9000 19400101 21991231   0 0   1 0   0.000000   0.000000     0 0    1.10000    0.90000    0.00000 110 "COLLINSVILLE"     1 -1 " "  0  " " 
   2073 "JAYTON 0    " 161.0000 " "  0  :  1 0.980344  0.980344  19.260569    2   10 1.1000 0.9000 19400101 21991231   0 0   1 0   0.000000   0.000000     0 0    1.10000    0.90000    0.00000 111 "JAYTON"     1 -1 " "  0  " " 
   2074 "JAYTON 1    " 115.0000 " "  0  :  1 0.989528  0.989528  21.689454    2   10 1.1000 0.9000 19400101 21991231   0 0   1 0   0.000000   0.000000     0 0    1.10000    0.90000    0.00000 111 "JAYTON"     1 -1 " "  0  " " 
   2075 "JAYTON 2    " 115.0000 " "  0  :  1 0.989528  0.989528  21.689454    2   10 1.1000 0.9000 19400101 21991231   0 0   1 0   0.000000   0.000000     0 0    1.10000    0.90000    0.00000 111 "JAYTON"     1 -1 " "  0  " " 
   2076 "JAYTON 3    "  24.0000 " "  0  :  2 1.040000 0.985784  20.233138    2   10 1.1000 0.9000 19400101 21991231   0 0   1 0   0.000000   0.000000     0 0    1.10000    0.90000    0.00000 111 "JAYTON"     1 -1 " "  0  " " 
   2077 "MUENSTER 1 0" 161.0000 " "  0  :  1 1.013090  1.013090  -17.486609    2   11 1.1000 0.9000 19400101 21991231   0 0   1 0   0.000000   0.000000     0 0    1.10000    0.90000    0.00000 112 "MUENSTER 1"     1 -1 " "  0  " " 
   2078 "MUENSTER 1 1"  13.8000 " "  0  :  2 1.020000 1.020000  -14.155734    2   11 1.1000 0.9000 19400101 21991231   0 0   1 0   0.000000   0.000000     0 0    1.10000    0.90000    0.00000 112 "MUENSTER 1"     1 -1 " "  0  " " 
   2079 "PADUCAH 0   " 161.0000 " "  0  :  1 1.000884  1.000884  26.721898    2   10 1.1000 0.9000 19400101 21991231   0 0   1 0   0.000000   0.000000     0 0    1.10000    0.90000    0.00000 113 "PADUCAH"     1 -1 " "  0  " " 
   2080 "NOCONA 0    " 161.0000 " "  0  :  1 0.998553  0.998553  -12.890424    2   11 1.1000 0.9000 19400101 21991231   0 0   1 0   0.000000   0.000000     0 0    1.10000    0.90000    0.00000 114 "NOCONA"     1 -1 " "  0  " " 
   2081 "DODD CITY 0 " 161.0000 " "  0  :  2 1.000000 1.025492  -30.143645    2   11 1.1000 0.9000 19400101 21991231   0 0   1 0   0.000000   0.000000     0 0    1.10000    0.90000    0.00000 115 "DODD CITY"     1 -1 " "  0  " " 
   2082 "WICHITA FA~5" 161.0000 " "  0  :  1 0.980072  0.980072  -0.303390    2   11 1.1000 0.9000 19400101 21991231   0 0   1 0   0.000000   0.000000     0 0    1.10000    0.90000    0.00000 116 "WICHITA FALLS 2"     1 -1 " "  0  " " 
   2083 "WICHITA FA~6"  20.0000 " "  0  :  2 1.020000 0.994937  0.226450    2   11 1.1000 0.9000 19400101 21991231   0 0   1 0   0.000000   0.000000     0 0    1.10000    0.90000    0.00000 116 "WICHITA FALLS 2"     1 -1 " "  0  " " 
   2084 "WICHITA FA~7"  20.0000 " "  0  :  2 1.020000 0.980072  -0.303390    2   11 1.1000 0.9000 19400101 21991231   0 0   1 0   0.000000   0.000000     0 0    1.10000    0.90000    0.00000 116 "WICHITA FALLS 2"     1 -1 " "  0  " " 
   2085 "WICHITA FA~8"  20.0000 " "  0  :  2 1.020000 0.980072  -0.303390    2   11 1.1000 0.9000 19400101 21991231   0 0   1 0   0.000000   0.000000     0 0    1.10000    0.90000    0.00000 116 "WICHITA FALLS 2"     1 -1 " "  0  " " 
   2086 "MONTAGUE 0  " 161.0000 " "  0  :  1 0.991012  0.991012  -16.553795    2   11 1.1000 0.9000 19400101 21991231   0 0   1 0   0.000000   0.000000     0 0    1.10000    0.90000    0.00000 117 "MONTAGUE"     1 -1 " "  0  " " 
   2087 "SPUR 0      " 161.0000 " "  0  :  2 1.000000 1.000000  25.072547    2   10 1.1000 0.9000 19400101 21991231   0 0   1 0   0.000000   0.000000     0 0    1.10000    0.90000    0.00000 118 "SPUR"     1 -1 " "  0  " " 
   2088 "ARCHER 1 0  " 161.0000 " "  0  :  1 0.989133  0.989133  -3.114611    2   11 1.1000 0.9000 19400101 21991231   0 0   1 0   0.000000   0.000000     0 0    1.10000    0.90000    0.00000 119 "ARCHER 1"     1 -1 " "  0  " " 
   2089 "ARCHER 1 1  "  24.0000 " "  0  :  2 1.000000 1.000000  0.514912    2   11 1.1000 0.9000 19400101 21991231   0 0   1 0   0.000000   0.000000     0 0    1.10000    0.90000    0.00000 119 "ARCHER 1"     1 -1 " "  0  " " 
   2090 "ANNONA 0    " 161.0000 " "  0  :  1 1.024512  1.024512  -31.216442    2   11 1.1000 0.9000 19400101 21991231   0 0   1 0   0.000000   0.000000     0 0    1.10000    0.90000    0.00000 120 "ANNONA"     1 -1 " "  0  " " 
   2091 "SEYMOUR 0   " 161.0000 " "  0  :  2 1.000000 1.000000  30.549848    2   10 1.1000 0.9000 19400101 21991231   0 0   1 0   0.000000   0.000000     0 0    1.10000    0.90000    0.00000 121 "SEYMOUR"     1 -1 " "  0  " " 
   2092 "DENISON 1 0 " 161.0000 " "  0  :  1 1.019874  1.019874  -33.669852    2   11 1.1000 0.9000 19400101 21991231   0 0   1 0   0.000000   0.000000     0 0    1.10000    0.90000    0.00000 122 "DENISON 1"     1 -1 " "  0  " " 
   2093 "PANHANDLE~10" 161.0000 " "  0  :  2 1.000000 0.999285  25.101684    2   10 1.1000 0.9000 19400101 21991231   0 0   1 0   0.000000   0.000000     0 0    1.10000    0.90000    0.00000 123 "PANHANDLE 5"     1 -1 " "  0  " " 
   2094 "PANHANDLE~11"  13.8000 " "  0  :  2 1.000000 1.000000  25.756448    2   10 1.1000 0.9000 19400101 21991231   0 0   1 0   0.000000   0.000000     0 0    1.10000    0.90000    0.00000 123 "PANHANDLE 5"     1 -1 " "  0  " " 
   2095 "PANHANDLE~12"  13.8000 " "  0  :  2 1.000000 1.000000  25.424112    2   10 1.1000 0.9000 19400101 21991231   0 0   1 0   0.000000   0.000000     0 0    1.10000    0.90000    0.00000 123 "PANHANDLE 5"     1 -1 " "  0  " " 
   2096 "RALLS 1 0   " 500.0000 " "  0  :  1 1.030000 1.006864  15.111006    2   10 1.1000 0.9000 19400101 21991231   0 0   1 0   0.000000   0.000000     0 0    1.10000    0.90000    0.00000 124 "RALLS 1"     1 -1 " "  0  " " 
   2097 "RALLS 1 1   " 230.0000 " "  0  :  1 0.999628  0.999628  16.697770    2   10 1.1000 0.9000 19400101 21991231   0 0   1 0   0.000000   0.000000     0 0    1.10000    0.90000    0.00000 124 "RALLS 1"     1 -1 " "  0  " " 
   2098 "RALLS 1 2   " 161.0000 " "  0  :  1 0.971537  0.971537  25.706310    2   10 1.1000 0.9000 19400101 21991231   0 0   1 0   0.000000   0.000000     0 0    1.10000    0.90000    0.00000 124 "RALLS 1"     1 -1 " "  0  " " 
   2099 "RALLS 1 3   "  18.0000 " "  0  :  2 1.020000 1.007618  15.257918    2   10 1.1000 0.9000 19400101 21991231   0 0   1 0   0.000000   0.000000     0 0    1.10000    0.90000    0.00000 124 "RALLS 1"     1 -1 " "  0  " " 
   2100 "RALLS 1 4   "  18.0000 " "  0  :  2 1.020000 1.019885  17.756894    2   10 1.1000 0.9000 19400101 21991231   0 0   1 0   0.000000   0.000000     0 0    1.10000    0.90000    0.00000 124 "RALLS 1"     1 -1 " "  0  " " 
   2101 "SHERMAN 1 0 " 500.0000 " "  0  :  1 1.025905  1.025905  -29.151429    2   11 1.1000 0.9000 19400101 21991231   0 0   1 0   0.000000   0.000000     0 0    1.10000    0.90000    0.00000 125 "SHERMAN 1"     1 -1 " "  0  " " 
   2102 "SHERMAN 1 1 " 161.0000 " "  0  :  1 1.020441  1.020441  -29.673069    2   11 1.1000 0.9000 19400101 21991231   0 0   1 0   0.000000   0.000000     0 0    1.10000    0.90000    0.00000 125 "SHERMAN 1"     1 -1 " "  0  " " 
   2103 "SHERMAN 1 2 "  20.0000 " "  0  :  2 1.000000 1.025905  -29.151429    2   11 1.1000 0.9000 19400101 21991231   0 0   1 0   0.000000   0.000000     0 0    1.10000    0.90000    0.00000 125 "SHERMAN 1"     1 -1 " "  0  " " 
   2104 "SHERMAN 1 3 "  20.0000 " "  0  :  2 1.000000 1.025905  -29.151429    2   11 1.1000 0.9000 19400101 21991231   0 0   1 0   0.000000   0.000000     0 0    1.10000    0.90000    0.00000 125 "SHERMAN 1"     1 -1 " "  0  " " 
   2105 "SHERMAN 1 4 "  20.0000 " "  0  :  2 1.000000 1.025905  -29.151429    2   11 1.1000 0.9000 19400101 21991231   0 0   1 0   0.000000   0.000000     0 0    1.10000    0.90000    0.00000 125 "SHERMAN 1"     1 -1 " "  0  " " 
   2106 "WHITEWRIGH~1" 161.0000 " "  0  :  1 1.010871  1.010871  -32.597823    2   11 1.1000 0.9000 19400101 21991231   0 0   1 0   0.000000   0.000000     0 0    1.10000    0.90000    0.00000 126 "WHITEWRIGHT"     1 -1 " "  0  " " 
   2107 "SHERMAN 2 0 " 161.0000 " "  0  :  1 1.015175  1.015175  -30.260691    2   11 1.1000 0.9000 19400101 21991231   0 0   1 0   0.000000   0.000000     0 0    1.10000    0.90000    0.00000 127 "SHERMAN 2"     1 -1 " "  0  " " 
   2108 "ROCHESTER 0 " 161.0000 " "  0  :  1 0.997703  0.997703  11.735911    2   10 1.1000 0.9000 19400101 21991231   0 0   1 0   0.000000   0.000000     0 0    1.10000    0.90000    0.00000 128 "ROCHESTER"     1 -1 " "  0  " " 
   2109 "BURKBURNET~1" 161.0000 " "  0  :  2 1.000000 1.000000  0.423110    2   11 1.1000 0.9000 19400101 21991231   0 0   1 0   0.000000   0.000000     0 0    1.10000    0.90000    0.00000 129 "BURKBURNETT"     1 -1 " "  0  " " 
...
branch data  [ 2856]                                          ck  se  ------------long_id_------------    st resist   react   charge   rate1  rate2  rate3  rate4 aloss  lngth 
   1001 "ODESSA 2 0  " 115.00    1064 "ODESSA 3 0  " 115.00  "1 "   1 " "  :  1  0.005240  0.035800  0.006090  221.0    0.0    0.0    0.0 0.000    0.0 /
   1    9  0.000000  0.000000  1.000000 19400101 21991231   0 1  0    0.0    0.0    0.0    0.0   1 1.000   0 0.000   0 0.000   0 0.000   0 0.000   0 0.000   0 0.000   0 0.000  0 0  0  0  0  90.000   0.000000  0.000000  " " 
   1001 "ODESSA 2 0  " 115.00    1064 "ODESSA 3 0  " 115.00  "2 "   1 " "  :  1  0.005240  0.035800  0.006090  221.0    0.0    0.0    0.0 0.000    0.0 /
...